case33bw_aw_edit.m
function mpc = case33bw
%CASE33BW  Power flow data for 33 bus distribution system from Baran & Wu
%   Please see CASEFORMAT for details on the case file format.
%
%   Data from ...
%       M. E. Baran and F. F. Wu, "Network reconfiguration in distribution
%       systems for loss reduction and load balancing," in IEEE Transactions
%       on Power Delivery, vol. 4, no. 2, pp. 1401-1407, Apr 1989.
%       doi: 10.1109/61.25627
%       URL: https://doi.org/10.1109/61.25627

%% MATPOWER Case Format : Version 2
mpc.version = '2';

%%-----  Power Flow Data  -----%%
%% system MVA base
mpc.baseMVA = 10;

%% bus data AW edit to get into correct p.u. following comments 120-123
%	bus_i	type	Pd	Qd	Gs	Bs	area	Vm	Va	baseKV	zone	Vmax	Vmin
mpc.bus = [ %% (Pd and Qd are specified in kW & kVAr here, converted to MW & MVAr below)
	1.0000    3.0000         0         0         0         0    1.0000    1.0000         0   12.6600    1.0000    1.0000    1.0000;
    2.0000    1.0000    0.1000    0.0600         0         0    1.0000    1.0000         0   12.6600    1.0000    1.1000    0.9000;
    3.0000    1.0000    0.0900    0.0400         0         0    1.0000    1.0000         0   12.6600    1.0000    1.1000    0.9000;
    4.0000    1.0000    0.1200    0.0800         0         0    1.0000    1.0000         0   12.6600    1.0000    1.1000    0.9000;
    5.0000    1.0000    0.0600    0.0300         0         0    1.0000    1.0000         0   12.6600    1.0000    1.1000    0.9000;
    6.0000    1.0000    0.0600    0.0200         0         0    1.0000    1.0000         0   12.6600    1.0000    1.1000    0.9000;
    7.0000    1.0000    0.2000    0.1000         0         0    1.0000    1.0000         0   12.6600    1.0000    1.1000    0.9000;
    8.0000    1.0000    0.2000    0.1000         0         0    1.0000    1.0000         0   12.6600    1.0000    1.1000    0.9000;
    9.0000    1.0000    0.0600    0.0200         0         0    1.0000    1.0000         0   12.6600    1.0000    1.1000    0.9000;
   10.0000    1.0000    0.0600    0.0200         0         0    1.0000    1.0000         0   12.6600    1.0000    1.1000    0.9000;
   11.0000    1.0000    0.0450    0.0300         0         0    1.0000    1.0000         0   12.6600    1.0000    1.1000    0.9000;
   12.0000    1.0000    0.0600    0.0350         0         0    1.0000    1.0000         0   12.6600    1.0000    1.1000    0.9000;
   13.0000    1.0000    0.0600    0.0350         0         0    1.0000    1.0000         0   12.6600    1.0000    1.1000    0.9000;
   14.0000    1.0000    0.1200    0.0800         0         0    1.0000    1.0000         0   12.6600    1.0000    1.1000    0.9000;
   15.0000    1.0000    0.0600    0.0100         0         0    1.0000    1.0000         0   12.6600    1.0000    1.1000    0.9000;
   16.0000    1.0000    0.0600    0.0200         0         0    1.0000    1.0000         0   12.6600    1.0000    1.1000    0.9000;
   17.0000    1.0000    0.0600    0.0200         0         0    1.0000    1.0000         0   12.6600    1.0000    1.1000    0.9000;
   18.0000    1.0000    0.0900    0.0400         0         0    1.0000    1.0000         0   12.6600    1.0000    1.1000    0.9000;
   19.0000    1.0000    0.0900    0.0400         0         0    1.0000    1.0000         0   12.6600    1.0000    1.1000    0.9000;
   20.0000    1.0000    0.0900    0.0400         0         0    1.0000    1.0000         0   12.6600    1.0000    1.1000    0.9000;
   21.0000    1.0000    0.0900    0.0400         0         0    1.0000    1.0000         0   12.6600    1.0000    1.1000    0.9000;
   22.0000    1.0000    0.0900    0.0400         0         0    1.0000    1.0000         0   12.6600    1.0000    1.1000    0.9000;
   23.0000    1.0000    0.0900    0.0500         0         0    1.0000    1.0000         0   12.6600    1.0000    1.1000    0.9000;
   24.0000    1.0000    0.4200    0.2000         0         0    1.0000    1.0000         0   12.6600    1.0000    1.1000    0.9000;
   25.0000    1.0000    0.4200    0.2000         0         0    1.0000    1.0000         0   12.6600    1.0000    1.1000    0.9000;
   26.0000    1.0000    0.0600    0.0250         0         0    1.0000    1.0000         0   12.6600    1.0000    1.1000    0.9000;
   27.0000    1.0000    0.0600    0.0250         0         0    1.0000    1.0000         0   12.6600    1.0000    1.1000    0.9000;
   28.0000    1.0000    0.0600    0.0200         0         0    1.0000    1.0000         0   12.6600    1.0000    1.1000    0.9000;
   29.0000    1.0000    0.1200    0.0700         0         0    1.0000    1.0000         0   12.6600    1.0000    1.1000    0.9000;
   30.0000    1.0000    0.2000    0.6000         0         0    1.0000    1.0000         0   12.6600    1.0000    1.1000    0.9000;
   31.0000    1.0000    0.1500    0.0700         0         0    1.0000    1.0000         0   12.6600    1.0000    1.1000    0.9000;
   32.0000    1.0000    0.2100    0.1000         0         0    1.0000    1.0000         0   12.6600    1.0000    1.1000    0.9000;
   33.0000    1.0000    0.0600    0.0400         0         0    1.0000    1.0000         0   12.6600    1.0000    1.1000    0.9000;
];

%% generator data
%	bus	Pg	Qg	Qmax	Qmin	Vg	mBase	status	Pmax	Pmin	Pc1	Pc2	Qc1min	Qc1max	Qc2min	Qc2max	ramp_agc	ramp_10	ramp_30	ramp_q	apf
mpc.gen = [
	1	0	0	10	-10	1	100	1	10	0	0	0	0	0	0	0	0	0	0	0	0;
];

%% branch data AW edit to get into correct p.u. following comments 120-123
%	fbus	tbus	r	x	b	rateA	rateB	rateC	ratio	angle	status	angmin	angmax
mpc.branch = [  %% (r and x specified in ohms here, converted to p.u. below)
	1.0000    2.0000    0.0006    0.0003         0         0         0         0         0         0    1.0000 -360.0000  360.0000;
    2.0000    3.0000    0.0031    0.0016         0         0         0         0         0         0    1.0000 -360.0000  360.0000;
    3.0000    4.0000    0.0023    0.0012         0         0         0         0         0         0    1.0000 -360.0000  360.0000;
    4.0000    5.0000    0.0024    0.0012         0         0         0         0         0         0    1.0000 -360.0000  360.0000;
    5.0000    6.0000    0.0051    0.0044         0         0         0         0         0         0    1.0000 -360.0000  360.0000;
    6.0000    7.0000    0.0012    0.0039         0         0         0         0         0         0    1.0000 -360.0000  360.0000;
    7.0000    8.0000    0.0044    0.0015         0         0         0         0         0         0    1.0000 -360.0000  360.0000;
    8.0000    9.0000    0.0064    0.0046         0         0         0         0         0         0    1.0000 -360.0000  360.0000;
    9.0000   10.0000    0.0065    0.0046         0         0         0         0         0         0    1.0000 -360.0000  360.0000;
   10.0000   11.0000    0.0012    0.0004         0         0         0         0         0         0    1.0000 -360.0000  360.0000;
   11.0000   12.0000    0.0023    0.0008         0         0         0         0         0         0    1.0000 -360.0000  360.0000;
   12.0000   13.0000    0.0092    0.0072         0         0         0         0         0         0    1.0000 -360.0000  360.0000;
   13.0000   14.0000    0.0034    0.0044         0         0         0         0         0         0    1.0000 -360.0000  360.0000;
   14.0000   15.0000    0.0037    0.0033         0         0         0         0         0         0    1.0000 -360.0000  360.0000;
   15.0000   16.0000    0.0047    0.0034         0         0         0         0         0         0    1.0000 -360.0000  360.0000;
   16.0000   17.0000    0.0080    0.0107         0         0         0         0         0         0    1.0000 -360.0000  360.0000;
   17.0000   18.0000    0.0046    0.0036         0         0         0         0         0         0    1.0000 -360.0000  360.0000;
    2.0000   19.0000    0.0010    0.0010         0         0         0         0         0         0    1.0000 -360.0000  360.0000;
   19.0000   20.0000    0.0094    0.0085         0         0         0         0         0         0    1.0000 -360.0000  360.0000;
   20.0000   21.0000    0.0026    0.0030         0         0         0         0         0         0    1.0000 -360.0000  360.0000;
   21.0000   22.0000    0.0044    0.0058         0         0         0         0         0         0    1.0000 -360.0000  360.0000;
    3.0000   23.0000    0.0028    0.0019         0         0         0         0         0         0    1.0000 -360.0000  360.0000;
   23.0000   24.0000    0.0056    0.0044         0         0         0         0         0         0    1.0000 -360.0000  360.0000;
   24.0000   25.0000    0.0056    0.0044         0         0         0         0         0         0    1.0000 -360.0000  360.0000;
    6.0000   26.0000    0.0013    0.0006         0         0         0         0         0         0    1.0000 -360.0000  360.0000;
   26.0000   27.0000    0.0018    0.0009         0         0         0         0         0         0    1.0000 -360.0000  360.0000;
   27.0000   28.0000    0.0066    0.0058         0         0         0         0         0         0    1.0000 -360.0000  360.0000;
   28.0000   29.0000    0.0050    0.0044         0         0         0         0         0         0    1.0000 -360.0000  360.0000;
   29.0000   30.0000    0.0032    0.0016         0         0         0         0         0         0    1.0000 -360.0000  360.0000;
   30.0000   31.0000    0.0061    0.0060         0         0         0         0         0         0    1.0000 -360.0000  360.0000;
   31.0000   32.0000    0.0019    0.0023         0         0         0         0         0         0    1.0000 -360.0000  360.0000;
   32.0000   33.0000    0.0021    0.0033         0         0         0         0         0         0    1.0000 -360.0000  360.0000;
   21.0000    8.0000    0.0125    0.0125         0         0         0         0         0         0         0 -360.0000  360.0000;
    9.0000   15.0000    0.0125    0.0125         0         0         0         0         0         0         0 -360.0000  360.0000;
   12.0000   22.0000    0.0125    0.0125         0         0         0         0         0         0         0 -360.0000  360.0000;
   18.0000   33.0000    0.0031    0.0031         0         0         0         0         0         0         0 -360.0000  360.0000;
   25.0000   29.0000    0.0031    0.0031         0         0         0         0         0         0         0 -360.0000  360.0000;
];

%%-----  OPF Data  -----%%
%% generator cost data
%	1	startup	shutdown	n	x1	y1	...	xn	yn
%	2	startup	shutdown	n	c(n-1)	...	c0
mpc.gencost = [
	2	0	0	3	0	20	0;
];


%% convert branch impedances from Ohms to p.u.
%[PQ, PV, REF, NONE, BUS_I, BUS_TYPE, PD, QD, GS, BS, BUS_AREA, VM, ...
 %   VA, BASE_KV, ZONE, VMAX, VMIN, LAM_P, LAM_Q, MU_VMAX, MU_VMIN] = idx_bus;
%[F_BUS, T_BUS, BR_R, BR_X, BR_B, RATE_A, RATE_B, RATE_C, ...
 %   TAP, SHIFT, BR_STATUS, PF, QF, PT, QT, MU_SF, MU_ST, ...
  %  ANGMIN, ANGMAX, MU_ANGMIN, MU_ANGMAX] = idx_brch;
%Vbase = mpc.bus(1, BASE_KV) * 1e3;      %% in Volts 12660
%Sbase = mpc.baseMVA * 1e6;              %% in VA 10000000
%mpc.branch(:, [BR_R BR_X]) = mpc.branch(:, [BR_R BR_X]) / (Vbase^2 / Sbase);

%% convert loads from kW to MW
%mpc.bus(:, [PD, QD]) = mpc.bus(:, [PD, QD]) / 1e3;
